Version 4
SHEET 1 4648 1560
WIRE 2640 1024 2544 1024
WIRE 2736 1024 2640 1024
WIRE 2768 1024 2736 1024
WIRE 3120 1024 3056 1024
WIRE 3248 1024 3120 1024
WIRE 3344 1024 3248 1024
WIRE 3472 1024 3344 1024
WIRE 3552 1024 3472 1024
WIRE 3728 1024 3552 1024
WIRE 3888 1024 3728 1024
WIRE 3984 1024 3888 1024
WIRE 4064 1024 3984 1024
WIRE 2544 1040 2544 1024
WIRE 3120 1040 3120 1024
WIRE 2640 1056 2640 1024
WIRE 3248 1056 3248 1024
WIRE 3472 1056 3472 1024
WIRE 3552 1056 3552 1024
WIRE 3728 1088 3728 1024
WIRE 2640 1136 2640 1120
WIRE 2736 1136 2736 1024
WIRE 2768 1136 2736 1136
WIRE 3120 1136 3120 1120
WIRE 3120 1136 3056 1136
WIRE 3120 1152 3120 1136
WIRE 3248 1152 3248 1120
WIRE 3472 1152 3472 1120
WIRE 3552 1152 3552 1136
WIRE 3728 1200 3728 1168
WIRE 3984 1200 3984 1024
WIRE 2544 1216 2544 1120
WIRE 2912 1216 2912 1200
WIRE 3120 1248 3120 1232
WIRE 3888 1296 3888 1104
WIRE 3984 1296 3984 1280
WIRE 4064 1312 4064 1024
FLAG 2912 1216 0
FLAG 3120 1248 0
FLAG 3248 1152 0
FLAG 3344 1024 OUT
FLAG 2640 1136 0
FLAG 2544 1024 IN
FLAG 3472 1152 0
FLAG 3552 1152 0
FLAG 2544 1216 0
FLAG 3728 1200 0
FLAG 3984 1296 0
FLAG 4064 1392 0
FLAG 3888 1296 0
SYMBOL VOLTAGE 2544 1024 R0
WINDOW 0 34 44 Left 2
WINDOW 3 29 98 Left 2
WINDOW 123 0 0 Left 2
WINDOW 39 29 126 Left 2
SYMATTR InstName V1
SYMATTR Value 3.7
SYMATTR SpiceLine Rser=700m
SYMBOL RES 3104 1024 R0
SYMATTR InstName R1
SYMATTR Value 4.53K
SYMATTR SpiceLine tol=1 pwr=0.1
SYMBOL res 3104 1248 M180
WINDOW 0 36 76 Left 2
WINDOW 3 36 40 Left 2
SYMATTR InstName R2
SYMATTR Value 4.12K
SYMBOL cap 3232 1056 R0
SYMATTR InstName C1
SYMATTR Value 10µ
SYMATTR SpiceLine Rser=5m
SYMBOL cap 2624 1056 R0
SYMATTR InstName C2
SYMATTR Value 10µ
SYMATTR SpiceLine Rser=5m
SYMBOL PowerProducts\\LT1965 2912 1088 R0
SYMATTR InstName U1
SYMBOL cap 3456 1056 R0
SYMATTR InstName C4
SYMATTR Value 0.3µ
SYMBOL res 3536 1040 R0
SYMATTR InstName R3
SYMATTR Value 18.79K
SYMBOL current 3728 1088 R0
WINDOW 123 0 0 Left 2
WINDOW 39 0 0 Left 2
SYMATTR InstName I1
SYMATTR Value PULSE(0 2.487mA 0 1us 1us 5ms 133ms 4)
SYMBOL current 3888 1024 R0
WINDOW 123 0 0 Left 2
WINDOW 39 0 0 Left 2
SYMATTR InstName I2
SYMATTR Value PULSE(0 4.988mA 10ms 1us 1us 10ms 133ms 4)
SYMBOL current 3984 1200 R0
WINDOW 123 0 0 Left 2
WINDOW 39 0 0 Left 2
SYMATTR InstName I3
SYMATTR Value PULSE(0 4.988mA 23ms 1us 1us 40ms 133ms 4)
SYMBOL current 4064 1312 R0
WINDOW 123 0 0 Left 2
WINDOW 39 0 0 Left 2
SYMATTR InstName I4
SYMATTR Value PULSE(0 10.693mA 63ms 1us 1us 70ms 133ms 4)
TEXT 3264 1232 Left 0 !.tran 800ms startup
TEXT 2400 1264 Left 0 ;Note:\n  If the simulation model is not found please update with the "Sync Release" command from the "Tools" menu.\n  It remains the customer's responsibility to verify proper and reliable operation in the actual application.\n  Component substitution and printed circuit board layout may significantly affect circuit performance or reliability.\n  Contact your local sales representative for assistance. This circuit is distributed to customers only for use with LTC parts.\n  Copyright © 2008 Linear Technology Inc. All rights reserved.
TEXT 2936 952 Bottom 0 ;LT1965- 1.1A, Low Noise Low Dropout Linear Regulator\nInput: 3.3V       Output: 2.5V@1.1A
